formicacid_c1
  COSMOLGC0512261005

  5  4  0  0  0  0  0  0  0  0999 V2000
   -0.8227    0.0000    0.5512   O 0  0  0  1  0  0  0  0  0  0  0  0
    0.4337    0.0000    0.0185   C 0  0  0  1  0  0  0  0  0  0  0  0
    1.4221    0.0000    0.7014   O 0  0  0  1  0  0  0  0  0  0  0  0
   -1.4761    0.0000   -0.1753   H 0  0  0  1  0  0  0  0  0  0  0  0
    0.4431    0.0000   -1.0958   H 0  0  0  1  0  0  0  0  0  0  0  0
  1  2  1  0  0  0  0
  2  3  2  0  0  0  0
  1  4  1  0  0  0  0
  2  5  1  0  0  0  0
M  END
> <ATOM.HYBRIDIZATION>
1
1
1
1
1

> <TOTAL_CHARGE>
0.0

$$$$
