formicacid_c0
  COSMOLGC0512261005

  5  4  0  0  0  0  0  0  0  0999 V2000
   -0.1222   -1.1399    0.0001   O 0  0  0  1  0  0  0  0  0  0  0  0
    0.4153    0.0937    0.0000   C 0  0  0  1  0  0  0  0  0  0  0  0
   -0.2160    1.1348    0.0000   O 0  0  0  1  0  0  0  0  0  0  0  0
   -1.1030   -1.0590   -0.0001   H 0  0  0  1  0  0  0  0  0  0  0  0
    1.5168    0.0243   -0.0001   H 0  0  0  1  0  0  0  0  0  0  0  0
  1  2  1  0  0  0  0
  2  3  2  0  0  0  0
  1  4  1  0  0  0  0
  2  5  1  0  0  0  0
M  END
> <ATOM.HYBRIDIZATION>
1
1
1
1
1

> <TOTAL_CHARGE>
0.0

$$$$
