formicacid_c0
  COSMOLGC0512261005

  5  4  0  0  0  0  0  0  0  0999 V2000
   -0.1200   -1.1509    0.0000   O 0  0  0  1  0  0  0  0  0  0  0  0
    0.4123    0.0981    0.0000   C 0  0  0  1  0  0  0  0  0  0  0  0
   -0.2207    1.1279    0.0000   O 0  0  0  1  0  0  0  0  0  0  0  0
   -1.0962   -1.0435    0.0000   H 0  0  0  1  0  0  0  0  0  0  0  0
    1.5156    0.0224    0.0000   H 0  0  0  1  0  0  0  0  0  0  0  0
  1  2  1  0  0  0  0
  2  3  2  0  0  0  0
  1  4  1  0  0  0  0
  2  5  1  0  0  0  0
M  END
> <ATOM.HYBRIDIZATION>
1
1
1
1
1

> <TOTAL_CHARGE>
0.0

$$$$
