formicacid_c1
  COSMOLGC0512261005

  5  4  0  0  0  0  0  0  0  0999 V2000
   -0.8110    0.0001    0.5464   O 0  0  0  1  0  0  0  0  0  0  0  0
    0.4260    0.0000    0.0095   C 0  0  0  1  0  0  0  0  0  0  0  0
    1.4191   -0.0001    0.7095   O 0  0  0  1  0  0  0  0  0  0  0  0
   -1.4808   -0.0001   -0.1685   H 0  0  0  1  0  0  0  0  0  0  0  0
    0.4468    0.0000   -1.0969   H 0  0  0  1  0  0  0  0  0  0  0  0
  1  2  1  0  0  0  0
  2  3  2  0  0  0  0
  1  4  1  0  0  0  0
  2  5  1  0  0  0  0
M  END
> <ATOM.HYBRIDIZATION>
1
1
1
1
1

> <TOTAL_CHARGE>
0.0

$$$$
