propionicacid_c0
  COSMOLGC0512261007

 11 10  0  0  0  0  0  0  0  0999 V2000
    0.0780    0.4877    0.0018   C 0  0  0  1  0  0  0  0  0  0  0  0
    1.3001    0.5401    0.0033   O 0  0  0  1  0  0  0  0  0  0  0  0
   -0.6960    1.6068   -0.0063   O 0  0  0  1  0  0  0  0  0  0  0  0
   -0.0993    2.3866   -0.0090   H 0  0  0  1  0  0  0  0  0  0  0  0
   -0.7595   -0.7686    0.0105   C 0  0  0  1  0  0  0  0  0  0  0  0
    0.0583   -2.0572   -0.0082   C 0  0  0  1  0  0  0  0  0  0  0  0
   -1.4089   -0.7196    0.8998   H 0  0  0  1  0  0  0  0  0  0  0  0
   -1.4419   -0.7134   -0.8530   H 0  0  0  1  0  0  0  0  0  0  0  0
   -0.6130   -2.9265    0.0073   H 0  0  0  1  0  0  0  0  0  0  0  0
    0.7209   -2.1221    0.8657   H 0  0  0  1  0  0  0  0  0  0  0  0
    0.6797   -2.1220   -0.9120   H 0  0  0  1  0  0  0  0  0  0  0  0
  1  2  2  0  0  0  0
  1  3  1  0  0  0  0
  1  5  1  0  0  0  0
  5  6  1  0  0  0  0
  3  4  1  0  0  0  0
  5  7  1  0  0  0  0
  5  8  1  0  0  0  0
  6  9  1  0  0  0  0
  6 10  1  0  0  0  0
  6 11  1  0  0  0  0
M  END
> <ATOM.HYBRIDIZATION>
1
1
1
1
1
1
1
1
1
1
1

> <TOTAL_CHARGE>
0.0

$$$$
