propionicacid_c1
  COSMOLGC0512261007

 11 10  0  0  0  0  0  0  0  0999 V2000
   -1.0505    0.6002    0.1371   C 0  0  0  1  0  0  0  0  0  0  0  0
   -0.8566    1.7587    0.4669   O 0  0  0  1  0  0  0  0  0  0  0  0
   -2.3379    0.1745   -0.0130   O 0  0  0  1  0  0  0  0  0  0  0  0
   -2.3600   -0.7679   -0.2776   H 0  0  0  1  0  0  0  0  0  0  0  0
    0.0257   -0.4317   -0.1285   C 0  0  0  1  0  0  0  0  0  0  0  0
    1.4447    0.0934    0.0740   C 0  0  0  1  0  0  0  0  0  0  0  0
   -0.1738   -1.2969    0.5258   H 0  0  0  1  0  0  0  0  0  0  0  0
   -0.1169   -0.7998   -1.1585   H 0  0  0  1  0  0  0  0  0  0  0  0
    2.1727   -0.7018   -0.1358   H 0  0  0  1  0  0  0  0  0  0  0  0
    1.5975    0.4345    1.1070   H 0  0  0  1  0  0  0  0  0  0  0  0
    1.6550    0.9368   -0.5975   H 0  0  0  1  0  0  0  0  0  0  0  0
  1  2  2  0  0  0  0
  1  3  1  0  0  0  0
  1  5  1  0  0  0  0
  5  6  1  0  0  0  0
  3  4  1  0  0  0  0
  5  7  1  0  0  0  0
  5  8  1  0  0  0  0
  6  9  1  0  0  0  0
  6 10  1  0  0  0  0
  6 11  1  0  0  0  0
M  END
> <ATOM.HYBRIDIZATION>
1
1
1
1
1
1
1
1
1
1
1

> <TOTAL_CHARGE>
0.0

$$$$
