propionicacid_c0
  COSMOLGC0512261007

 11 10  0  0  0  0  0  0  0  0999 V2000
    0.0796    0.4846   -0.0007   C 0  0  0  1  0  0  0  0  0  0  0  0
    1.2940    0.5343   -0.0079   O 0  0  0  1  0  0  0  0  0  0  0  0
   -0.7011    1.6115    0.0000   O 0  0  0  1  0  0  0  0  0  0  0  0
   -0.0795    2.3692   -0.0051   H 0  0  0  1  0  0  0  0  0  0  0  0
   -0.7677   -0.7697    0.0099   C 0  0  0  1  0  0  0  0  0  0  0  0
    0.0569   -2.0542   -0.0068   C 0  0  0  1  0  0  0  0  0  0  0  0
   -1.4193   -0.7185    0.8975   H 0  0  0  1  0  0  0  0  0  0  0  0
   -1.4502   -0.7145   -0.8538   H 0  0  0  1  0  0  0  0  0  0  0  0
   -0.6033   -2.9322    0.0058   H 0  0  0  1  0  0  0  0  0  0  0  0
    0.7217   -2.1095    0.8653   H 0  0  0  1  0  0  0  0  0  0  0  0
    0.6870   -2.1089   -0.9042   H 0  0  0  1  0  0  0  0  0  0  0  0
  1  2  2  0  0  0  0
  1  3  1  0  0  0  0
  1  5  1  0  0  0  0
  5  6  1  0  0  0  0
  3  4  1  0  0  0  0
  5  7  1  0  0  0  0
  5  8  1  0  0  0  0
  6  9  1  0  0  0  0
  6 10  1  0  0  0  0
  6 11  1  0  0  0  0
M  END
> <ATOM.HYBRIDIZATION>
1
1
1
1
1
1
1
1
1
1
1

> <TOTAL_CHARGE>
0.0

$$$$
