propionicacid_c1
  COSMOLGC0512261007

 11 10  0  0  0  0  0  0  0  0999 V2000
   -1.0509    0.6126    0.1397   C 0  0  0  1  0  0  0  0  0  0  0  0
   -0.8418    1.7572    0.4638   O 0  0  0  1  0  0  0  0  0  0  0  0
   -2.3478    0.1755   -0.0122   O 0  0  0  1  0  0  0  0  0  0  0  0
   -2.3485   -0.7651   -0.2740   H 0  0  0  1  0  0  0  0  0  0  0  0
    0.0234   -0.4378   -0.1308   C 0  0  0  1  0  0  0  0  0  0  0  0
    1.4420    0.0888    0.0731   C 0  0  0  1  0  0  0  0  0  0  0  0
   -0.1711   -1.3038    0.5260   H 0  0  0  1  0  0  0  0  0  0  0  0
   -0.1134   -0.8047   -1.1632   H 0  0  0  1  0  0  0  0  0  0  0  0
    2.1793   -0.6983   -0.1357   H 0  0  0  1  0  0  0  0  0  0  0  0
    1.5861    0.4362    1.1043   H 0  0  0  1  0  0  0  0  0  0  0  0
    1.6426    0.9393   -0.5910   H 0  0  0  1  0  0  0  0  0  0  0  0
  1  2  2  0  0  0  0
  1  3  1  0  0  0  0
  1  5  1  0  0  0  0
  5  6  1  0  0  0  0
  3  4  1  0  0  0  0
  5  7  1  0  0  0  0
  5  8  1  0  0  0  0
  6  9  1  0  0  0  0
  6 10  1  0  0  0  0
  6 11  1  0  0  0  0
M  END
> <ATOM.HYBRIDIZATION>
1
1
1
1
1
1
1
1
1
1
1

> <TOTAL_CHARGE>
0.0

$$$$
